.subckt BC856D 1 2 3 4 5 6
.include BC856.lib
X1 6 2 1 BC856
X2 3 5 4 BC856
.ends